2
* Half-wave rectifier
R1 2 0 1
D1 1 2 
V1 1 0 SIN( 0 10 100 0 0 0 100 )
.tran 1e-1 1e-4 GEAR 100
